Estimador_Hibrido/med/BASES/PMU Calibration/Full_PMU_Marcio_Iinj-M5756/Full_PMU_MI-M5657(1).txt
================================================================================= 
=== UFF - Doutorado em Computação - Aplicaçoes em Sistemas de Potencia        === 
=== ESTIMADOR DE ESTADO MÍNIMOS QUADRADOS PONDERADOS INCLUINDO MEDIDAS DE PMU === 
=== Desenvolvido por: Rui Menezes de Moraes - 2009                            === 
================================================================================= 
Arquivo de medidores:          .\med\CS1_39M_PMU_VI.med
Arquivo do sistema:            .\sist\ieee14.cdf
Tolerância entre iteraçoes:    1.00e-005
Limite de iteraçoes:           100

--- DADOS DA REDE --------------------------------------------------------------- 
Data do caso:                  08/19/93
Origem:                        UW ARCHIVE          
MVA base:                      100
Ano:                           1962
Estação:                       W
Identificação:                 IEEE 14 Bus Test Case
Número de barras:              14 
Número de ramos:               20 
Referência na barra:           1

--- TELEMEDIDAS ------------------------------------------------------------------
    Tipo 1 = Fluxo de potencia ativa        Tipo  6 = Módulo da tensão            
    Tipo 2 = Injeção de potencia ativa      Tipo  7 = Corrente de ramo (real)     
    Tipo 3 = Ângulo de fase da tensão       Tipo  8 = Corrente de ramo (imag)     
    Tipo 4 = Fluxo de potencia reativa      Tipo  9 = Injeção de corrente (real)  
    Tipo 5 = Injeção de potencia reativa    Tipo 10 = Injeção de corrente (imag)  
----------------------------------------------------------------------------------
   N    D    P TP  PN ST   Exa   FS       DP      V_Ref      V_Med          E(%) 
----------------------------------------------------------------------------------
   1    1    2  1   0  0 0.020 01.0  0.00015   +1.56805   +1.56277     -0.336724 
   2    1    5  1   0  0 0.020 01.0  0.00005   +0.75460   +0.74333     -1.493506 
   3    2    3  1   0  0 0.020 01.0  0.00004   +0.73305   +0.73388     +0.113226 
   4    4    7  1   0  0 0.020 01.0  0.00001   +0.28126   +0.28230     +0.369765 
   5    4    9  1   0  0 0.020 01.0  0.00001   +0.16101   +0.15779     -1.999876 
   6    5    2  1   0  0 0.020 01.0  0.00002   -0.40536   -0.40007     -1.305013 
   7    6   11  1   0  0 0.020 01.0  0.00001   +0.07337   +0.07601     +3.598201 
   8    6   12  1   0  0 0.020 01.0  0.00001   +0.07850   +0.07841     -0.114650 
   9    6   13  1   0  0 0.020 01.0  0.00001   +0.17927   +0.18023     +0.535505 
  10    7    8  1   0  0 0.020 01.0  0.00000   +0.00000   +0.00030     +0.000000 
  11    8    7  1   0  0 0.020 01.0  0.00000   +0.00000   -0.00032     +0.000000 
  12    9   10  1   0  0 0.020 01.0  0.00000   +0.05275   +0.05426     +2.862559 
  13    9   14  1   0  0 0.020 01.0  0.00001   +0.09340   +0.09201     -1.488223 
  14   12   13  1   0  0 0.020 01.0  0.00000   +0.01662   +0.02064    +24.187726 
  15    0    3  2   0  0 0.020 01.0  0.00006   -0.94406   -0.94516     +0.116518 
  16    0    6  2   0  0 0.020 01.0  0.00001   -0.11019   -0.10990     -0.263182 
  17    0    9  2   0  0 0.020 01.0  0.00001   -0.29595   -0.29200     -1.334685 
  18    0   10  2   0  0 0.020 01.0  0.00001   -0.09091   -0.09077     -0.153998 
  19    0   13  2   0  0 0.020 01.0  0.00001   -0.13855   -0.13880     +0.180440 
  20    0    1  6   0  0 0.015 01.1  0.00003   +1.06000   +1.05559     -0.416038 
  21    1    2  4   0  0 0.020 01.0  0.00001   -0.20386   -0.20295     -0.446385 
  22    1    5  4   0  0 0.020 01.0  0.00000   +0.03634   +0.03370     -7.264722 
  23    2    3  4   0  0 0.020 01.0  0.00000   +0.03554   +0.03694     +3.939223 
  24    4    7  4   0  0 0.020 01.0  0.00001   -0.09754   -0.09367     -3.967603 
  25    4    9  4   0  0 0.020 01.0  0.00000   -0.00375   -0.00497    +32.533333 
  26    5    2  4   0  0 0.020 01.0  0.00000   -0.01848   -0.01689     -8.603896 
  27    6   11  4   0  0 0.020 01.0  0.00000   +0.03518   +0.03765     +7.021035 
  28    6   12  4   0  0 0.020 01.0  0.00000   +0.02552   +0.02249    -11.873041 
  29    6   13  4   0  0 0.020 01.0  0.00001   +0.07440   +0.07119     -4.314516 
  30    7    8  4   0  0 0.020 01.0  0.00001   -0.16881   -0.16718     -0.965583 
  31    8    7  4   0  0 0.020 01.0  0.00001   +0.17326   +0.17211     -0.663742 
  32    9   10  4   0  0 0.020 01.0  0.00000   +0.04268   +0.04407     +3.256795 
  33    9   14  4   0  0 0.020 01.0  0.00000   +0.03494   +0.03654     +4.579279 
  34   12   13  4   0  0 0.020 01.0  0.00000   +0.00803   +0.00930    +15.815691 
  35    0    3  5   0  0 0.020 01.0  0.00001   +0.05965   +0.06240     +4.610226 
  36    0    6  5   0  0 0.020 01.0  0.00000   +0.05243   +0.05382     +2.651154 
  37    0    9  5   0  0 0.020 01.0  0.00000   -0.17115   -0.17388     +1.595092 
  38    0   10  5   0  0 0.020 01.0  0.00001   -0.05872   -0.06127     +4.342643 
  39    0   13  5   0  0 0.020 01.0  0.00001   -0.06255   -0.06259     +0.063949 
  40    0    1  9   1  0 0.010 01.0  0.00000   +2.19118   +2.19829     +0.324483 
  41    0    1 10   1  0 0.010 01.0  0.00000   +0.15803   +0.15908     +0.664431 
  42    0    2  9   2  0 0.010 01.0  0.00000   +0.14938   +0.14821     -0.783237 
  43    0    2 10   2  0 0.010 01.0  0.00000   -0.30477   -0.30584     +0.351084 
  44    0    3  9   3  0 0.010 01.0  0.00000   -0.92477   -0.91867     -0.659623 
  45    0    3 10   3  0 0.010 01.0  0.00000   +0.14820   +0.14746     -0.499325 
  46    0    4  9   4  0 0.010 01.0  0.00000   -0.46812   -0.46512     -0.640861 
  47    0    4 10   4  0 0.010 01.0  0.00000   +0.04662   +0.04679     +0.364650 
  48    0    5  9   5  0 0.010 01.0  0.00000   -0.06922   -0.06950     +0.404507 
  49    0    5 10   5  0 0.010 01.0  0.00000   +0.01659   +0.01650     -0.542495 
  50    0    6  9   6  0 0.010 01.0  0.00000   -0.11185   -0.11116     -0.616898 
  51    0    6 10   6  0 0.010 01.0  0.00000   -0.02219   -0.02223     +0.180261 
  52    0    7  9   7  0 0.010 01.0  0.00000   -0.00182   -0.00181     -0.549451 
  53    0    7 10   7  0 0.010 01.0  0.00000   -0.00695   -0.00699     +0.575540 
  54    0    8  9   8  0 0.010 01.0  0.00000   -0.03672   -0.03646     -0.708061 
  55    0    8 10   8  0 0.010 01.0  0.00000   -0.15465   -0.15482     +0.109926 
  56    0    9  9   9  0 0.010 01.0  0.00000   -0.28071   -0.28070     -0.003562 
  57    0    9 10   9  0 0.010 01.0  0.00000   +0.03499   +0.03497     -0.057159 
  58    0   10  9  10  0 0.010 01.0  0.00000   -0.06894   -0.06855     -0.565709 
  59    0   10 10  10  0 0.010 01.0  0.00000   +0.07647   +0.07674     +0.353080 
  60    0   11  9  11  0 0.010 01.0  0.00000   -0.02727   -0.02748     +0.770077 
  61    0   11 10  11  0 0.010 01.0  0.00000   +0.02416   +0.02406     -0.413907 
  62    0   12  9  12  0 0.010 01.0  0.00000   -0.05203   -0.05159     -0.845666 
  63    0   12 10  12  0 0.010 01.0  0.00000   +0.02968   +0.02939     -0.977089 
  64    0   13  9  13  0 0.010 01.0  0.00000   -0.11178   -0.11127     -0.456253 
  65    0   13 10  13  0 0.010 01.0  0.00000   +0.09200   +0.09214     +0.152174 
  66    0   14  9  14  0 0.010 01.0  0.00000   -0.12367   -0.12307     -0.485162 
  67    0   14 10  14  0 0.010 01.0  0.00000   +0.08280   +0.08235     -0.543478 
----------------------------------------------------------------------------------
Número de medidores SCADA:     39
Número de PMUs:                14
Número de medidas das PMUs:    28
----------------------------------------------------------------------------------

Matriz de pesos formada com as covariâncias das telemedidas.
Não há medidas de ângulo.
Não há medidores desabilitados.
============= Estado Ref =============== Estado Est ================ TVE =========
Barra     Mod(pu)    Ang(graus)      Mod(pu)   Ang(graus)            (%)         
----------------------------------------------------------------------------------
   1       1.0600         0.00        0.8673         0.00         18.1783 
   2       1.0450        -4.98        0.8529        -6.25         18.4904 
   3       1.0100       -12.73        0.8247       -15.96         19.0443 
   4       1.0180       -10.31        0.8352       -13.06         18.4783 
   5       1.0200        -8.77        0.8354       -11.11         18.4691 
   6       1.0700       -14.22        0.8886       -17.67         17.8245 
   7       1.0620       -13.36        0.8890       -16.87         17.2252 
   8       1.0900       -13.36        0.9141       -16.81         17.0491 
   9       1.0560       -14.94        0.8924       -18.82         16.6913 
  10       1.0510       -15.10        0.8843       -19.00         17.0468 
  11       1.0570       -14.79        0.8832       -18.52         17.4900 
  12       1.0550       -15.08        0.8753       -18.77         18.0087 
  13       1.0500       -15.16        0.8712       -18.91         18.0397 
  14       1.0360       -16.03        0.8663       -20.11         17.6291 
----------------------------------------------------------------------------------
Convergiu em:    6 iteraçoes com TVE medio de    17.8332 
----------------------------------------------------------------------------------
--- RESIDUOS NORMALIZADOS --------------------------------------------------------
--- Fluxo de potencia ativa     --------------------------------------------------
   N    D    P  TP      Real     Medido   Estimado      Med-Est        rn 
----------------------------------------------------------------------------------
   1    1    2  1    +1.5680    +1.5628    +1.3126  +2.5014e-001     21.456 
   3    2    3  1    +0.7330    +0.7339    +0.6065  +1.2741e-001     19.929 
   2    1    5  1    +0.7546    +0.7433    +0.6335  +1.0979e-001     16.901 
   6    5    2  1    -0.4054    -0.4001    -0.3343  -6.5804e-002     15.235 
   4    4    7  1    +0.2813    +0.2823    +0.2407  +4.1647e-002     11.742 
   9    6   13  1    +0.1793    +0.1802    +0.1504  +2.9820e-002     10.256 
   7    6   11  1    +0.0734    +0.0760    +0.0571  +1.8923e-002      8.487 
   5    4    9  1    +0.1610    +0.1578    +0.1386  +1.9200e-002      6.961 
   8    6   12  1    +0.0785    +0.0784    +0.0653  +1.3154e-002      5.849 
  14   12   13  1    +0.0166    +0.0206    +0.0133  +7.3065e-003      3.910 
  11    8    7  1    +0.0000    -0.0003    +0.0045  -4.8657e-003      2.822 
  10    7    8  1    +0.0000    +0.0003    -0.0045  +4.8457e-003      2.810 
  13    9   14  1    +0.0934    +0.0920    +0.0865  +5.4876e-003      2.357 
  12    9   10  1    +0.0527    +0.0543    +0.0544  -1.1551e-004      0.055 
--- Injeção de potencia ativa   --------------------------------------------------
   N    D    P  TP      Real     Medido   Estimado      Med-Est        rn 
----------------------------------------------------------------------------------
  15    0    3  2    -0.9441    -0.9452    -0.7746  -1.7055e-001     22.448 
  17    0    9  2    -0.2959    -0.2920    -0.2431  -4.8855e-002     13.713 
  16    0    6  2    -0.1102    -0.1099    -0.0885  -2.1355e-002      8.768 
  19    0   13  2    -0.1386    -0.1388    -0.1199  -1.8876e-002      7.181 
  18    0   10  2    -0.0909    -0.0908    -0.0808  -9.9839e-003      4.295 
--- Fluxo de potencia reativa   --------------------------------------------------
   N    D    P  TP      Real     Medido   Estimado      Med-Est        rn 
----------------------------------------------------------------------------------
  26    5    2  4    -0.0185    -0.0169    +0.0282  -4.5065e-002     24.617 
  27    6   11  4    +0.0352    +0.0377    -0.0027  +4.0395e-002     20.406 
  25    4    9  4    -0.0037    -0.0050    -0.0403  +3.5362e-002     20.090 
  24    4    7  4    -0.0975    -0.0937    -0.1350  +4.1351e-002     17.843 
  31    8    7  4    +0.1733    +0.1721    +0.1305  +4.1587e-002     14.626 
  30    7    8  4    -0.1688    -0.1672    -0.1269  -4.0253e-002     14.309 
  29    6   13  4    +0.0744    +0.0712    +0.0431  +2.8049e-002     12.836 
  21    1    2  4    -0.2039    -0.2029    -0.1644  -3.8530e-002     12.662 
  23    2    3  4    +0.0355    +0.0369    +0.0127  +2.4210e-002     12.360 
  32    9   10  4    +0.0427    +0.0441    +0.0657  -2.1661e-002     10.782 
  22    1    5  4    +0.0363    +0.0337    +0.0129  +2.0806e-002     10.662 
  33    9   14  4    +0.0349    +0.0365    +0.0463  -9.7598e-003      4.980 
  28    6   12  4    +0.0255    +0.0225    +0.0151  +7.4120e-003      3.944 
  34   12   13  4    +0.0080    +0.0093    +0.0033  +6.0227e-003      3.357 
--- Injeção de potencia reativa --------------------------------------------------
   N    D    P  TP      Real     Medido   Estimado      Med-Est        rn 
----------------------------------------------------------------------------------
  37    0    9  5    -0.1712    -0.1739    +0.0487  -2.2253e-001     77.513 
  35    0    3  5    +0.0597    +0.0624    +0.0820  -1.9639e-002     10.434 
  38    0   10  5    -0.0587    -0.0613    -0.0483  -1.2940e-002      6.100 
  39    0   13  5    -0.0625    -0.0626    -0.0500  -1.2615e-002      5.952 
  36    0    6  5    +0.0524    +0.0538    +0.0486  +5.1958e-003      2.489 
--- Módulo da tensão            --------------------------------------------------
   N    D    P  TP      Real     Medido   Estimado      Med-Est        rn 
----------------------------------------------------------------------------------
  20    0    1  6    +1.0600    +1.0556    +0.8673  +1.8828e-001     38.586 
--- Injeção de corrente (real)  --------------------------------------------------
   N    D    P  TP      Real     Medido   Estimado      Med-Est        rn 
----------------------------------------------------------------------------------
  56    0    9  9    -0.2807    -0.2807    -0.2755  -5.2237e-003     18.174 
  50    0    6  9    -0.1119    -0.1112    -0.1116  +4.0026e-004      6.910 
  40    0    1  9    +2.1912    +2.1983    +2.2439  -4.5623e-002      6.803 
  54    0    8  9    -0.0367    -0.0365    -0.0365  +7.0144e-005      6.719 
  44    0    3  9    -0.9248    -0.9187    -0.9304  +1.1765e-002      6.235 
  64    0   13  9    -0.1118    -0.1113    -0.1116  +3.5509e-004      5.581 
  46    0    4  9    -0.4681    -0.4651    -0.4641  -1.0517e-003      3.007 
  42    0    2  9    +0.1494    +0.1482    +0.1483  -7.3336e-005      2.188 
  48    0    5  9    -0.0692    -0.0695    -0.0695  -1.6925e-005      2.076 
  66    0   14  9    -0.1237    -0.1231    -0.1232  +1.0492e-004      1.903 
  58    0   10  9    -0.0689    -0.0686    -0.0686  +4.0834e-005      1.421 
  62    0   12  9    -0.0520    -0.0516    -0.0516  +1.4199e-005      1.230 
  60    0   11  9    -0.0273    -0.0275    -0.0275  +1.6723e-007      0.057 
  52    0    7  9    -0.0018    -0.0018    -0.0018  -2.2999e-008      0.000 
--- Injeção de corrente (imag)  --------------------------------------------------
   N    D    P  TP      Real     Medido   Estimado      Med-Est        rn 
----------------------------------------------------------------------------------
  57    0    9 10    +0.0350    +0.0350    +0.0363  -1.3024e-003    138.955 
  53    0    7 10    -0.0069    -0.0070    -0.0070  -3.8333e-005    118.166 
  47    0    4 10    +0.0466    +0.0468    +0.0482  -1.4468e-003    106.398 
  49    0    5 10    +0.0166    +0.0165    +0.0167  -1.8215e-004    106.274 
  61    0   11 10    +0.0242    +0.0241    +0.0245  -4.5265e-004    103.236 
  67    0   14 10    +0.0828    +0.0824    +0.0876  -5.2459e-003    101.903 
  43    0    2 10    -0.3048    -0.3058    -0.2507  -5.5182e-002     98.144 
  41    0    1 10    +0.1580    +0.1591    +0.1747  -1.5628e-002     93.537 
  63    0   12 10    +0.0297    +0.0294    +0.0300  -6.2862e-004     90.860 
  45    0    3 10    +0.1482    +0.1475    +0.1627  -1.5204e-002     89.755 
  65    0   13 10    +0.0920    +0.0921    +0.0989  -6.7388e-003     89.725 
  55    0    8 10    -0.1547    -0.1548    -0.1381  -1.6702e-002     88.807 
  59    0   10 10    +0.0765    +0.0767    +0.0814  -4.6785e-003     87.294 
  51    0    6 10    -0.0222    -0.0222    -0.0219  -3.4301e-004     83.706 
----------------------------------------------------------------------------------
Possível erro grosseiro no medidor 57!
Medida crítica   52!
Medida crítica   53!
Possíveis conjuntos críticos:
Conjunto 1: 10 11
Conjunto 2: 14 28
Conjunto 3: 50 5
Conjunto 4: 3 25
Conjunto 5: 65 45
Conjunto 6: 49 47
Não há medidas de ângulo.
Medidores desabilitados:
Medidor 57.
============= Estado Ref =============== Estado Est ================ TVE =========
Barra     Mod(pu)    Ang(graus)      Mod(pu)   Ang(graus)            (%)         
----------------------------------------------------------------------------------
   1       1.0600         0.00        1.0496         0.00          0.9798 
   2       1.0450        -4.98        1.0345        -5.10          1.0267 
   3       1.0100       -12.73        0.9999       -12.93          1.0563 
   4       1.0180       -10.31        1.0073       -10.59          1.1537 
   5       1.0200        -8.77        1.0094        -9.01          1.1225 
   6       1.0700       -14.22        1.0604       -14.66          1.1793 
   7       1.0620       -13.36        1.0519       -13.90          1.3339 
   8       1.0900       -13.36        1.0799       -13.88          1.2916 
   9       1.0560       -14.94        1.0465       -15.62          1.4893 
  10       1.0510       -15.10        1.0415       -15.75          1.4424 
  11       1.0570       -14.79        1.0474       -15.34          1.3159 
  12       1.0550       -15.08        1.0457       -15.55          1.1986 
  13       1.0500       -15.16        1.0406       -15.64          1.2310 
  14       1.0360       -16.03        1.0268       -16.64          1.3791 
----------------------------------------------------------------------------------
Convergiu em:    4 iteraçoes com TVE medio de     1.2286 
----------------------------------------------------------------------------------
--- RESIDUOS NORMALIZADOS --------------------------------------------------------
--- Fluxo de potencia ativa     --------------------------------------------------
   N    D    P  TP      Real     Medido   Estimado      Med-Est        rn 
----------------------------------------------------------------------------------
   5    4    9  1    +0.1610    +0.1578    +0.1717  -1.3864e-002      5.044 
   4    4    7  1    +0.2813    +0.2823    +0.2992  -1.6884e-002      4.790 
  12    9   10  1    +0.0527    +0.0543    +0.0448  +9.4920e-003      4.569 
   2    1    5  1    +0.7546    +0.7433    +0.7596  -1.6227e-002      2.515 
   7    6   11  1    +0.0734    +0.0760    +0.0809  -4.8739e-003      2.195 
   6    5    2  1    -0.4054    -0.4001    -0.4093  +9.2526e-003      2.154 
  13    9   14  1    +0.0934    +0.0920    +0.0872  +4.7773e-003      2.056 
  14   12   13  1    +0.0166    +0.0206    +0.0175  +3.1300e-003      1.676 
  11    8    7  1    +0.0000    -0.0003    +0.0020  -2.2894e-003      1.328 
  10    7    8  1    +0.0000    +0.0003    -0.0020  +2.2694e-003      1.317 
   3    2    3  1    +0.7330    +0.7339    +0.7259  +8.0297e-003      1.267 
   1    1    2  1    +1.5680    +1.5628    +1.5730  -1.0206e-002      0.884 
   9    6   13  1    +0.1793    +0.1802    +0.1813  -1.0640e-003      0.367 
   8    6   12  1    +0.0785    +0.0784    +0.0784  +3.3306e-006      0.001 
--- Injeção de potencia ativa   --------------------------------------------------
   N    D    P  TP      Real     Medido   Estimado      Med-Est        rn 
----------------------------------------------------------------------------------
  17    0    9  2    -0.2959    -0.2920    -0.3407  +4.8725e-002     14.023 
  15    0    3  2    -0.9441    -0.9452    -0.9244  -2.0747e-002      2.775 
  16    0    6  2    -0.1102    -0.1099    -0.1080  -1.9125e-003      0.789 
  19    0   13  2    -0.1386    -0.1388    -0.1372  -1.6229e-003      0.620 
  18    0   10  2    -0.0909    -0.0908    -0.0903  -4.4673e-004      0.192 
--- Fluxo de potencia reativa   --------------------------------------------------
   N    D    P  TP      Real     Medido   Estimado      Med-Est        rn 
----------------------------------------------------------------------------------
  27    6   11  4    +0.0352    +0.0377    +0.0310  +6.6036e-003      3.371 
  24    4    7  4    -0.0975    -0.0937    -0.0992  +5.5574e-003      2.420 
  23    2    3  4    +0.0355    +0.0369    +0.0336  +3.3578e-003      1.721 
  22    1    5  4    +0.0363    +0.0337    +0.0369  -3.1639e-003      1.631 
  34   12   13  4    +0.0080    +0.0093    +0.0073  +2.0035e-003      1.117 
  26    5    2  4    -0.0185    -0.0169    -0.0152  -1.6515e-003      0.920 
  28    6   12  4    +0.0255    +0.0225    +0.0240  -1.4721e-003      0.784 
  32    9   10  4    +0.0427    +0.0441    +0.0452  -1.1678e-003      0.583 
  33    9   14  4    +0.0349    +0.0365    +0.0357  +8.1409e-004      0.416 
  29    6   13  4    +0.0744    +0.0712    +0.0707  +5.3007e-004      0.244 
  25    4    9  4    -0.0037    -0.0050    -0.0054  +4.1599e-004      0.239 
  30    7    8  4    -0.1688    -0.1672    -0.1675  +3.5415e-004      0.127 
  21    1    2  4    -0.2039    -0.2029    -0.2033  +3.4607e-004      0.114 
  31    8    7  4    +0.1733    +0.1721    +0.1720  +1.0685e-004      0.038 
--- Injeção de potencia reativa --------------------------------------------------
   N    D    P  TP      Real     Medido   Estimado      Med-Est        rn 
----------------------------------------------------------------------------------
  37    0    9  5    -0.1712    -0.1739    -0.1535  -2.0350e-002      8.553 
  38    0   10  5    -0.0587    -0.0613    -0.0576  -3.7120e-003      1.753 
  39    0   13  5    -0.0625    -0.0626    -0.0610  -1.5691e-003      0.742 
  36    0    6  5    +0.0524    +0.0538    +0.0526  +1.1889e-003      0.570 
  35    0    3  5    +0.0597    +0.0624    +0.0614  +1.0304e-003      0.547 
--- Módulo da tensão            --------------------------------------------------
   N    D    P  TP      Real     Medido   Estimado      Med-Est        rn 
----------------------------------------------------------------------------------
  20    0    1  6    +1.0600    +1.0556    +1.0496  +5.9762e-003      1.252 
--- Injeção de corrente (real)  --------------------------------------------------
   N    D    P  TP      Real     Medido   Estimado      Med-Est        rn 
----------------------------------------------------------------------------------
  56    0    9  9    -0.2807    -0.2807    -0.2741  -6.6423e-003     19.888 
  46    0    4  9    -0.4681    -0.4651    -0.4626  -2.4861e-003      6.813 
  48    0    5  9    -0.0692    -0.0695    -0.0694  -5.5683e-005      6.480 
  66    0   14  9    -0.1237    -0.1231    -0.1228  -3.1761e-004      5.105 
  42    0    2  9    +0.1494    +0.1482    +0.1484  -1.6728e-004      4.795 
  60    0   11  9    -0.0273    -0.0275    -0.0275  -1.5353e-005      4.544 
  40    0    1  9    +2.1912    +2.1983    +2.2223  -2.3988e-002      3.565 
  62    0   12  9    -0.0520    -0.0516    -0.0516  -3.9606e-005      2.971 
  58    0   10  9    -0.0689    -0.0686    -0.0685  -7.3930e-005      2.233 
  44    0    3  9    -0.9248    -0.9187    -0.9148  -3.9070e-003      2.015 
  64    0   13  9    -0.1118    -0.1113    -0.1111  -1.3971e-004      1.916 
  54    0    8  9    -0.0367    -0.0365    -0.0364  -2.2248e-005      1.793 
  50    0    6  9    -0.1119    -0.1112    -0.1111  -7.8114e-005      1.167 
  52    0    7  9    -0.0018    -0.0018    -0.0018  -1.1180e-007      0.000 
--- Injeção de corrente (imag)  --------------------------------------------------
   N    D    P  TP      Real     Medido   Estimado      Med-Est        rn 
----------------------------------------------------------------------------------
  43    0    2 10    -0.3048    -0.3058    -0.3079  +2.0392e-003      5.505 
  49    0    5 10    +0.0166    +0.0165    +0.0165  +5.6214e-006      5.389 
  47    0    4 10    +0.0466    +0.0468    +0.0467  +4.2947e-005      5.261 
  53    0    7 10    -0.0069    -0.0070    -0.0070  +7.0863e-007      4.454 
  63    0   12 10    +0.0297    +0.0294    +0.0294  +2.4839e-005      4.448 
  41    0    1 10    +0.1580    +0.1591    +0.1586  +5.1486e-004      4.127 
  51    0    6 10    -0.0222    -0.0222    -0.0222  +1.1993e-005      3.372 
  45    0    3 10    +0.1482    +0.1475    +0.1471  +3.9339e-004      2.783 
  67    0   14 10    +0.0828    +0.0824    +0.0823  +9.6578e-005      2.632 
  65    0   13 10    +0.0920    +0.0921    +0.0920  +1.2053e-004      1.886 
  61    0   11 10    +0.0242    +0.0241    +0.0241  +5.1339e-006      1.653 
  55    0    8 10    -0.1547    -0.1548    -0.1551  +2.3705e-004      1.532 
  59    0   10 10    +0.0765    +0.0767    +0.0767  +1.2769e-005      0.273 
----------------------------------------------------------------------------------
Possível erro grosseiro no medidor 56!
Medida crítica   52!
Medida crítica   53!
Possíveis conjuntos críticos:
Conjunto 1: 28 16
Conjunto 2: 10 11
Conjunto 3: 15 45
Conjunto 4: 27 51
Conjunto 5: 63 53
Conjunto 6: 60 12
Conjunto 7: 4 42
Não há medidas de ângulo.
Medidores desabilitados:
Medidor 56.
Medidor 57.
============= Estado Ref =============== Estado Est ================ TVE =========
Barra     Mod(pu)    Ang(graus)      Mod(pu)   Ang(graus)            (%)         
----------------------------------------------------------------------------------
   1       1.0600         0.00        1.0573         0.00          0.2591 
   2       1.0450        -4.98        1.0424        -4.98          0.2519 
   3       1.0100       -12.73        1.0075       -12.73          0.2495 
   4       1.0180       -10.31        1.0154       -10.31          0.2569 
   5       1.0200        -8.77        1.0174        -8.77          0.2566 
   6       1.0700       -14.22        1.0672       -14.21          0.2641 
   7       1.0620       -13.36        1.0592       -13.35          0.2637 
   8       1.0900       -13.36        1.0872       -13.35          0.2567 
   9       1.0560       -14.94        1.0531       -14.94          0.2725 
  10       1.0510       -15.10        1.0481       -15.09          0.2747 
  11       1.0570       -14.79        1.0542       -14.78          0.2695 
  12       1.0550       -15.08        1.0523       -15.07          0.2611 
  13       1.0500       -15.16        1.0472       -15.15          0.2663 
  14       1.0360       -16.03        1.0332       -16.02          0.2661 
----------------------------------------------------------------------------------
Convergiu em:    4 iteraçoes com TVE medio de     0.2621 
----------------------------------------------------------------------------------
--- RESIDUOS NORMALIZADOS --------------------------------------------------------
--- Fluxo de potencia ativa     --------------------------------------------------
   N    D    P  TP      Real     Medido   Estimado      Med-Est        rn 
----------------------------------------------------------------------------------
  14   12   13  1    +0.0166    +0.0206    +0.0167  +3.9450e-003      2.113 
   7    6   11  1    +0.0734    +0.0760    +0.0733  +2.6927e-003      1.231 
   2    1    5  1    +0.7546    +0.7433    +0.7505  -7.1600e-003      1.113 
  12    9   10  1    +0.0527    +0.0543    +0.0523  +1.9213e-003      0.941 
   5    4    9  1    +0.1610    +0.1578    +0.1601  -2.3272e-003      0.866 
   4    4    7  1    +0.2813    +0.2823    +0.2796  +2.6928e-003      0.796 
   9    6   13  1    +0.1793    +0.1802    +0.1782  +2.0754e-003      0.717 
   3    2    3  1    +0.7330    +0.7339    +0.7296  +4.3029e-003      0.680 
   6    5    2  1    -0.4054    -0.4001    -0.4030  +2.8998e-003      0.677 
  11    8    7  1    +0.0000    -0.0003    +0.0003  -5.9406e-004      0.345 
  10    7    8  1    +0.0000    +0.0003    -0.0003  +5.7406e-004      0.333 
   8    6   12  1    +0.0785    +0.0784    +0.0779  +5.3523e-004      0.238 
  13    9   14  1    +0.0934    +0.0920    +0.0925  -5.2982e-004      0.230 
   1    1    2  1    +1.5680    +1.5628    +1.5602  +2.5289e-003      0.220 
--- Injeção de potencia ativa   --------------------------------------------------
   N    D    P  TP      Real     Medido   Estimado      Med-Est        rn 
----------------------------------------------------------------------------------
  17    0    9  2    -0.2959    -0.2920    -0.2950  +2.9648e-003      1.141 
  15    0    3  2    -0.9441    -0.9452    -0.9401  -5.0748e-003      0.683 
  19    0   13  2    -0.1386    -0.1388    -0.1378  -1.0221e-003      0.390 
  16    0    6  2    -0.1102    -0.1099    -0.1092  -6.8582e-004      0.283 
  18    0   10  2    -0.0909    -0.0908    -0.0904  -4.1219e-004      0.178 
--- Fluxo de potencia reativa   --------------------------------------------------
   N    D    P  TP      Real     Medido   Estimado      Med-Est        rn 
----------------------------------------------------------------------------------
  28    6   12  4    +0.0255    +0.0225    +0.0253  -2.8497e-003      1.519 
  29    6   13  4    +0.0744    +0.0712    +0.0743  -3.0696e-003      1.418 
  24    4    7  4    -0.0975    -0.0937    -0.0967  +3.0237e-003      1.319 
  27    6   11  4    +0.0352    +0.0377    +0.0352  +2.4952e-003      1.281 
  22    1    5  4    +0.0363    +0.0337    +0.0360  -2.3473e-003      1.210 
  26    5    2  4    -0.0185    -0.0169    -0.0188  +1.9158e-003      1.072 
  33    9   14  4    +0.0349    +0.0365    +0.0346  +1.9060e-003      0.974 
  25    4    9  4    -0.0037    -0.0050    -0.0034  -1.5417e-003      0.888 
  23    2    3  4    +0.0355    +0.0369    +0.0352  +1.7308e-003      0.888 
  34   12   13  4    +0.0080    +0.0093    +0.0081  +1.2023e-003      0.671 
  32    9   10  4    +0.0427    +0.0441    +0.0428  +1.2987e-003      0.650 
  30    7    8  4    -0.1688    -0.1672    -0.1684  +1.2189e-003      0.438 
  21    1    2  4    -0.2039    -0.2029    -0.2042  +1.2534e-003      0.415 
  31    8    7  4    +0.1733    +0.1721    +0.1729  -7.4145e-004      0.263 
--- Injeção de potencia reativa --------------------------------------------------
   N    D    P  TP      Real     Medido   Estimado      Med-Est        rn 
----------------------------------------------------------------------------------
  37    0    9  5    -0.1712    -0.1739    -0.1712  -2.6657e-003      1.203 
  35    0    3  5    +0.0597    +0.0624    +0.0603  +2.1493e-003      1.143 
  38    0   10  5    -0.0587    -0.0613    -0.0590  -2.2810e-003      1.078 
  36    0    6  5    +0.0524    +0.0538    +0.0521  +1.6839e-003      0.807 
  39    0   13  5    -0.0625    -0.0626    -0.0626  +6.7535e-006      0.003 
--- Módulo da tensão            --------------------------------------------------
   N    D    P  TP      Real     Medido   Estimado      Med-Est        rn 
----------------------------------------------------------------------------------
  20    0    1  6    +1.0600    +1.0556    +1.0573  -1.6632e-003      0.350 
--- Injeção de corrente (real)  --------------------------------------------------
   N    D    P  TP      Real     Medido   Estimado      Med-Est        rn 
----------------------------------------------------------------------------------
  44    0    3  9    -0.9248    -0.9187    -0.9233  +4.6648e-003      2.467 
  40    0    1  9    +2.1912    +2.1983    +2.1856  +1.2691e-002      1.960 
  42    0    2  9    +0.1494    +0.1482    +0.1482  +5.6493e-005      1.707 
  46    0    4  9    -0.4681    -0.4651    -0.4656  +5.1185e-004      1.540 
  60    0   11  9    -0.0273    -0.0275    -0.0275  +4.6169e-006      1.424 
  64    0   13  9    -0.1118    -0.1113    -0.1114  +1.0223e-004      1.418 
  48    0    5  9    -0.0692    -0.0695    -0.0695  +9.6801e-006      1.219 
  58    0   10  9    -0.0689    -0.0686    -0.0686  +2.9742e-005      0.905 
  66    0   14  9    -0.1237    -0.1231    -0.1231  +5.1815e-005      0.870 
  54    0    8  9    -0.0367    -0.0365    -0.0365  +9.6031e-006      0.774 
  50    0    6  9    -0.1119    -0.1112    -0.1112  +4.1227e-005      0.616 
  62    0   12  9    -0.0520    -0.0516    -0.0516  +2.2450e-007      0.017 
  52    0    7  9    -0.0018    -0.0018    -0.0018  +9.2567e-009      0.000 
--- Injeção de corrente (imag)  --------------------------------------------------
   N    D    P  TP      Real     Medido   Estimado      Med-Est        rn 
----------------------------------------------------------------------------------
  63    0   12 10    +0.0297    +0.0294    +0.0294  +1.2730e-005      2.276 
  49    0    5 10    +0.0166    +0.0165    +0.0165  +1.2383e-006      1.201 
  51    0    6 10    -0.0222    -0.0222    -0.0222  +3.8895e-006      1.093 
  59    0   10 10    +0.0765    +0.0767    +0.0768  -4.8698e-005      1.038 
  47    0    4 10    +0.0466    +0.0468    +0.0468  +7.4231e-006      0.921 
  65    0   13 10    +0.0920    +0.0921    +0.0921  +5.8335e-005      0.908 
  45    0    3 10    +0.1482    +0.1475    +0.1474  +1.0405e-004      0.734 
  61    0   11 10    +0.0242    +0.0241    +0.0241  -2.1501e-006      0.692 
  55    0    8 10    -0.1547    -0.1548    -0.1547  -7.2404e-005      0.469 
  67    0   14 10    +0.0828    +0.0824    +0.0823  +1.2621e-005      0.344 
  53    0    7 10    -0.0069    -0.0070    -0.0070  +4.4397e-008      0.283 
  41    0    1 10    +0.1580    +0.1591    +0.1590  +3.0063e-005      0.243 
  43    0    2 10    -0.3048    -0.3058    -0.3059  +7.8672e-005      0.218 
----------------------------------------------------------------------------------
Não foram identificados erros grosseiros.
Medida crítica   52!
Medida crítica   53!
Possíveis conjuntos críticos:
Conjunto 1: 43 1
Conjunto 2: 53 16
Conjunto 3: 67 11
Conjunto 4: 34 6
Conjunto 5: 6 3 15
Conjunto 6: 3 15
Conjunto 7: 5 66
Conjunto 8: 23 25
Conjunto 9: 58 65
Conjunto 10: 26 38
Conjunto 11: 17 35
Conjunto 12: 49 37 22
Conjunto 13: 37 22
Conjunto 14: 22 48
Conjunto 15: 48 7
Conjunto 16: 64 29 60
Conjunto 17: 29 60
